omf/scratch/anonymization/randomNames/main.2018-04-18-12-28-46.glm
clock {
	timezone PST+8PDT;
	starttime '2000-01-01 00:00:00';
	stoptime '2000-01-02 00:00:00';
};

#set minimum_timestep=60;
#set profiler=1;
#set relax_naming_rules=1;
module generators;
module tape;
module climate;
module residential {
	implicit_enduses NONE;
};

module powerflow {
	solver_method NR;
	NR_iteration_limit 50;
};

object node {
	phases ABCN;
	name 83;
	bustype SWING;
	nominal_voltage 7200.0;
};

object overhead_line {
	phases ACBN;
	from 83;
	name 295;
	to 608;
	length 20.6237;
	configuration 528;
};

object overhead_line {
	phases ACBN;
	from 608;
	name 977;
	to 1310;
	length 13.0755;
	configuration 528;
};

object overhead_line {
	phases ACBN;
	from 1310;
	name 863;
	to 631;
	length 14.8233;
	configuration 528;
};

object overhead_line {
	phases ACBN;
	from 1310;
	name 88;
	to 344;
	length 10;
	configuration 528;
};

object overhead_line {
	phases ACBN;
	from 1310;
	name 1385;
	to 1136;
	length 10;
	configuration 528;
};

object overhead_line {
	phases ACBN;
	from 1310;
	name 56;
	to 1002;
	length 19.0913;
	configuration 528;
};

object overhead_line {
	phases ACBN;
	from 1002;
	name 1495;
	to 526;
	length 24.3563;
	configuration 528;
};

object fuse {
	phases ACBN;
	from 526;
	name 872;
	current_limit 9999.0 A;
	to 1360;
};

object overhead_line {
	phases ACBN;
	from 1360;
	name 9;
	to 426;
	length 82.2659;
	configuration 528;
};

object overhead_line {
	phases ACBN;
	from 426;
	name 982;
	to 540;
	length 87.5465;
	configuration 528;
};

object overhead_line {
	phases ACBN;
	from 540;
	name 1642;
	to 1508;
	length 281.156;
	configuration 528;
};

object overhead_line {
	phases ACBN;
	from 1508;
	name 700;
	to 1704;
	length 465.786;
	configuration 528;
};

object overhead_line {
	phases ACBN;
	from 1704;
	name 262;
	to 1044;
	length 212.612;
	configuration 528;
};

object overhead_line {
	phases ACBN;
	from 1044;
	name 563;
	to 140;
	length 302.735;
	configuration 528;
};

object overhead_line {
	phases ACBN;
	from 140;
	name 406;
	to 745;
	length 178.526;
	configuration 528;
};

object overhead_line {
	phases ACBN;
	from 745;
	name 975;
	to 1598;
	length 144.103;
	configuration 528;
};

object transformer {
	phases BS;
	from 1598;
	name 1152;
	to 100;
	configuration 752;
};

object triplex_node {
	phases BS;
	power_12 100;
	name 358;
	parent 100;
	nominal_voltage 120;
};

object overhead_line {
	phases ACBN;
	from 1598;
	name 1520;
	to 830;
	length 266.66;
	configuration 528;
};

object overhead_line {
	phases ACBN;
	from 830;
	name 542;
	to 581;
	length 153.517;
	configuration 528;
};

object overhead_line {
	phases ACBN;
	from 581;
	name 637;
	to 866;
	length 357.003;
	configuration 528;
};

object overhead_line {
	phases AN;
	from 866;
	name 1032;
	to 585;
	length 27.7071;
	configuration 1270;
};

object fuse {
	phases AN;
	from 585;
	name 67;
	current_limit 9999.0 A;
	to 687;
};

object overhead_line {
	phases AN;
	from 687;
	name 601;
	to 875;
	length 103.665;
	configuration 1270;
};

object transformer {
	phases AS;
	from 875;
	name 158;
	to 1601;
	configuration 752;
};

object triplex_node {
	phases AS;
	power_12 100;
	name 1425;
	parent 1601;
	nominal_voltage 120;
};

object triplex_node {
	phases AS;
	power_12 100;
	name 1314;
	parent 1601;
	nominal_voltage 120;
};

object overhead_line {
	phases ACBN;
	from 866;
	name 1229;
	to 1444;
	length 287.2;
	configuration 528;
};

object transformer {
	phases BS;
	from 1444;
	name 1542;
	to 1635;
	configuration 752;
};

object triplex_node {
	phases BS;
	power_12 100;
	name 1618;
	parent 1635;
	nominal_voltage 120;
};

object overhead_line {
	phases ACBN;
	from 1444;
	name 1612;
	to 508;
	length 211.226;
	configuration 528;
};

object transformer {
	phases CS;
	from 508;
	name 973;
	to 1154;
	configuration 752;
};

object triplex_node {
	phases CS;
	power_12 100;
	name 319;
	parent 1154;
	nominal_voltage 120;
};

object overhead_line {
	phases ACBN;
	from 508;
	name 243;
	to 1469;
	length 194.654;
	configuration 528;
};

object transformer {
	phases BS;
	from 1469;
	name 990;
	to 551;
	configuration 752;
};

object triplex_node {
	phases BS;
	power_12 100;
	name 1712;
	parent 551;
	nominal_voltage 120;
};

object overhead_line {
	phases ACBN;
	from 1469;
	name 944;
	to 1345;
	length 222.044;
	configuration 528;
};

object overhead_line {
	phases ACBN;
	from 1345;
	name 1364;
	to 1695;
	length 273.49;
	configuration 528;
};

object transformer {
	phases AS;
	from 1695;
	name 314;
	to 853;
	configuration 752;
};

object triplex_node {
	phases AS;
	power_12 100;
	name 1252;
	parent 853;
	nominal_voltage 120;
};

object overhead_line {
	phases CN;
	from 1695;
	name 636;
	to 185;
	length 26.5061;
	configuration 1699;
};

object fuse {
	phases CN;
	from 185;
	name 1472;
	current_limit 9999.0 A;
	to 1208;
};

object overhead_line {
	phases CN;
	from 1208;
	name 630;
	to 1278;
	length 80.8867;
	configuration 1699;
};

object transformer {
	phases CS;
	from 1278;
	name 76;
	to 1534;
	configuration 752;
};

object triplex_node {
	phases CS;
	power_12 1519.04;
	name 1085;
	parent 1534;
	nominal_voltage 120;
};

object overhead_line {
	phases CN;
	from 1695;
	name 706;
	to 1241;
	length 28.1181;
	configuration 1699;
};

object fuse {
	phases CN;
	from 1241;
	name 336;
	current_limit 9999.0 A;
	to 1020;
};

object overhead_line {
	phases CN;
	from 1020;
	name 457;
	to 900;
	length 241.85;
	configuration 1699;
};

object overhead_line {
	phases CN;
	from 900;
	name 1003;
	to 966;
	length 320.096;
	configuration 1699;
};

object overhead_line {
	phases CN;
	from 966;
	name 467;
	to 1553;
	length 319.967;
	configuration 1699;
};

object transformer {
	phases CS;
	from 1553;
	name 622;
	to 1660;
	configuration 752;
};

object triplex_node {
	phases CS;
	power_12 1655.3;
	name 300;
	parent 1660;
	nominal_voltage 120;
};

object overhead_line {
	phases CN;
	from 1553;
	name 211;
	to 616;
	length 203.088;
	configuration 1699;
};

object overhead_line {
	phases CN;
	from 616;
	name 780;
	to 51;
	length 158.947;
	configuration 1699;
};

object transformer {
	phases CS;
	from 51;
	name 971;
	to 1237;
	configuration 752;
};

object triplex_node {
	phases CS;
	power_12 10133.7;
	name 1267;
	parent 1237;
	nominal_voltage 120;
};

object overhead_line {
	phases AN;
	from 1695;
	name 459;
	to 768;
	length 24.9997;
	configuration 1270;
};

object fuse {
	phases AN;
	from 768;
	name 490;
	current_limit 9999.0 A;
	to 107;
};

object overhead_line {
	phases AN;
	from 107;
	name 561;
	to 1160;
	length 260.872;
	configuration 1270;
};

object transformer {
	phases AS;
	from 1160;
	name 1089;
	to 117;
	configuration 752;
};

object triplex_node {
	phases AS;
	power_12 100;
	name 1438;
	parent 117;
	nominal_voltage 120;
};

object overhead_line {
	phases AN;
	from 1160;
	name 809;
	to 171;
	length 174.815;
	configuration 1270;
};

object transformer {
	phases AS;
	from 171;
	name 310;
	to 1702;
	configuration 752;
};

object triplex_node {
	phases AS;
	power_12 100;
	name 753;
	parent 1702;
	nominal_voltage 120;
};

object triplex_node {
	phases AS;
	power_12 100;
	name 1292;
	parent 1702;
	nominal_voltage 120;
};

object overhead_line {
	phases AN;
	from 1160;
	name 77;
	to 1080;
	length 467.84;
	configuration 1270;
};

object transformer {
	phases AS;
	from 1080;
	name 1362;
	to 1685;
	configuration 752;
};

object triplex_node {
	phases AS;
	power_12 100;
	name 887;
	parent 1685;
	nominal_voltage 120;
};

object triplex_node {
	phases AS;
	power_12 100;
	name 1703;
	parent 1685;
	nominal_voltage 120;
};

object overhead_line {
	phases AN;
	from 1080;
	name 388;
	to 1075;
	length 372.94;
	configuration 1270;
};

object transformer {
	phases AS;
	from 1075;
	name 281;
	to 1500;
	configuration 752;
};

object triplex_node {
	phases AS;
	power_12 100;
	name 1588;
	parent 1500;
	nominal_voltage 120;
};

object overhead_line {
	phases AN;
	from 1075;
	name 430;
	to 825;
	length 288.845;
	configuration 1270;
};

object transformer {
	phases AS;
	from 825;
	name 614;
	to 567;
	configuration 752;
};

object triplex_node {
	phases AS;
	power_12 100;
	name 1410;
	parent 567;
	nominal_voltage 120;
};

object overhead_line {
	phases AN;
	from 1080;
	name 1269;
	to 1624;
	length 235.1;
	configuration 1270;
};

object overhead_line {
	phases AN;
	from 1624;
	name 1527;
	to 937;
	length 316.703;
	configuration 1270;
};

object transformer {
	phases AS;
	from 937;
	name 46;
	to 1582;
	configuration 752;
};

object triplex_node {
	phases AS;
	power_12 100;
	name 537;
	parent 1582;
	nominal_voltage 120;
};

object triplex_node {
	phases AS;
	power_12 100;
	name 1260;
	parent 1582;
	nominal_voltage 120;
};

object overhead_line {
	phases AN;
	from 937;
	name 930;
	to 1311;
	length 201.012;
	configuration 1270;
};

object transformer {
	phases AS;
	from 1311;
	name 1613;
	to 273;
	configuration 752;
};

object triplex_node {
	phases AS;
	power_12 100;
	name 732;
	parent 273;
	nominal_voltage 120;
};

object overhead_line {
	phases AN;
	from 1624;
	name 839;
	to 85;
	length 383.447;
	configuration 1270;
};

object transformer {
	phases AS;
	from 85;
	name 889;
	to 595;
	configuration 752;
};

object triplex_node {
	phases AS;
	power_12 100;
	name 565;
	parent 595;
	nominal_voltage 120;
};

object overhead_line {
	phases AN;
	from 85;
	name 166;
	to 1224;
	length 321.462;
	configuration 1270;
};

object transformer {
	phases AS;
	from 1224;
	name 892;
	to 473;
	configuration 752;
};

object triplex_node {
	phases AS;
	power_12 100;
	name 893;
	parent 473;
	nominal_voltage 120;
};

object triplex_node {
	phases AS;
	power_12 100;
	name 683;
	parent 473;
	nominal_voltage 120;
};

object overhead_line {
	phases AN;
	from 1224;
	name 389;
	to 1693;
	length 211.036;
	configuration 1270;
};

object transformer {
	phases AS;
	from 1693;
	name 1043;
	to 285;
	configuration 752;
};

object triplex_node {
	phases AS;
	power_12 100;
	name 785;
	parent 285;
	nominal_voltage 120;
};

object overhead_line {
	phases AN;
	from 1693;
	name 1324;
	to 882;
	length 202.261;
	configuration 1270;
};

object transformer {
	phases AS;
	from 882;
	name 1456;
	to 1268;
	configuration 752;
};

object triplex_node {
	phases AS;
	power_12 100;
	name 1030;
	parent 1268;
	nominal_voltage 120;
};

object triplex_node {
	phases AS;
	power_12 100;
	name 1568;
	parent 1268;
	nominal_voltage 120;
};

object overhead_line {
	phases AN;
	from 882;
	name 1153;
	to 1259;
	length 217.697;
	configuration 1270;
};

object transformer {
	phases AS;
	from 1259;
	name 1630;
	to 725;
	configuration 752;
};

object triplex_node {
	phases AS;
	power_12 100;
	name 205;
	parent 725;
	nominal_voltage 120;
};

object triplex_node {
	phases AS;
	power_12 100;
	name 1201;
	parent 725;
	nominal_voltage 120;
};

object overhead_line {
	phases AN;
	from 882;
	name 580;
	to 465;
	length 198.705;
	configuration 1270;
};

object transformer {
	phases AS;
	from 465;
	name 605;
	to 277;
	configuration 752;
};

object triplex_node {
	phases AS;
	power_12 100;
	name 261;
	parent 277;
	nominal_voltage 120;
};

object overhead_line {
	phases AN;
	from 1693;
	name 1603;
	to 66;
	length 202.235;
	configuration 1270;
};

object transformer {
	phases AS;
	from 66;
	name 715;
	to 849;
	configuration 752;
};

object triplex_node {
	phases AS;
	power_12 100;
	name 1423;
	parent 849;
	nominal_voltage 120;
};

object overhead_line {
	phases AN;
	from 1624;
	name 828;
	to 1641;
	length 141.214;
	configuration 1270;
};

object transformer {
	phases AS;
	from 1641;
	name 47;
	to 80;
	configuration 752;
};

object triplex_node {
	phases AS;
	power_12 100;
	name 257;
	parent 80;
	nominal_voltage 120;
};

object overhead_line {
	phases ACBN;
	from 1695;
	name 861;
	to 909;
	length 335.444;
	configuration 528;
};

object transformer {
	phases BS;
	from 909;
	name 681;
	to 868;
	configuration 752;
};

object triplex_node {
	phases BS;
	power_12 100;
	name 1667;
	parent 868;
	nominal_voltage 120;
};

object overhead_line {
	phases CN;
	from 909;
	name 570;
	to 1293;
	length 26.6007;
	configuration 1699;
};

object fuse {
	phases CN;
	from 1293;
	name 888;
	current_limit 9999.0 A;
	to 1264;
};

object overhead_line {
	phases CN;
	from 1264;
	name 1066;
	to 30;
	length 243.066;
	configuration 1699;
};

object transformer {
	phases CS;
	from 30;
	name 1175;
	to 1633;
	configuration 752;
};

object triplex_node {
	phases CS;
	power_12 4534.42;
	name 1589;
	parent 1633;
	nominal_voltage 120;
};

object overhead_line {
	phases CN;
	from 30;
	name 1453;
	to 371;
	length 305.297;
	configuration 1699;
};

object transformer {
	phases CS;
	from 371;
	name 1359;
	to 242;
	configuration 752;
};

object triplex_node {
	phases CS;
	power_12 3757.23;
	name 1502;
	parent 242;
	nominal_voltage 120;
};

object overhead_line {
	phases ACBN;
	from 909;
	name 1271;
	to 1257;
	length 386.822;
	configuration 528;
};

object overhead_line {
	phases ACBN;
	from 1257;
	name 128;
	to 201;
	length 137.975;
	configuration 528;
};

object transformer {
	phases BS;
	from 201;
	name 1296;
	to 548;
	configuration 752;
};

object triplex_node {
	phases BS;
	power_12 100;
	name 1195;
	parent 548;
	nominal_voltage 120;
};

object overhead_line {
	phases AN;
	from 201;
	name 648;
	to 1628;
	length 25.0001;
	configuration 1270;
};

object fuse {
	phases AN;
	from 1628;
	name 1576;
	current_limit 9999.0 A;
	to 754;
};

object overhead_line {
	phases AN;
	from 754;
	name 35;
	to 97;
	length 118.283;
	configuration 1270;
};

object transformer {
	phases AS;
	from 97;
	name 1442;
	to 992;
	configuration 752;
};

object triplex_node {
	phases AS;
	power_12 100;
	name 309;
	parent 992;
	nominal_voltage 120;
};

object overhead_line {
	phases AN;
	from 97;
	name 1707;
	to 617;
	length 218.301;
	configuration 1270;
};

object overhead_line {
	phases AN;
	from 617;
	name 1146;
	to 1053;
	length 286.217;
	configuration 1270;
};

object transformer {
	phases AS;
	from 1053;
	name 1478;
	to 466;
	configuration 752;
};

object triplex_node {
	phases AS;
	power_12 100;
	name 160;
	parent 466;
	nominal_voltage 120;
};

object overhead_line {
	phases AN;
	from 201;
	name 800;
	to 1287;
	length 428.982;
	configuration 834;
};

object transformer {
	phases AS;
	from 1287;
	name 713;
	to 1379;
	configuration 752;
};

object triplex_node {
	phases AS;
	power_12 100;
	name 743;
	parent 1379;
	nominal_voltage 120;
};

object triplex_node {
	phases AS;
	power_12 100;
	name 795;
	parent 1379;
	nominal_voltage 120;
};

object overhead_line {
	phases ACBN;
	from 201;
	name 755;
	to 1119;
	length 155.789;
	configuration 528;
};

object underground_line {
	phases ACBN;
	from 1119;
	name 578;
	to 545;
	length 24.9999;
	configuration 1118;
};

object fuse {
	phases ACB;
	from 545;
	name 93;
	current_limit 9999.0 A;
	to 640;
};

object underground_line {
	phases ACB;
	from 640;
	name 707;
	to 968;
	length 201.626;
	configuration 1118;
};

object transformer {
	phases AS;
	from 968;
	name 442;
	to 1306;
	configuration 752;
};

object triplex_node {
	phases AS;
	power_12 3072.58;
	name 137;
	parent 1306;
	nominal_voltage 120;
};

object overhead_line {
	phases ACBN;
	from 1119;
	name 1404;
	to 10;
	length 172.639;
	configuration 528;
};

object transformer {
	phases BS;
	from 10;
	name 642;
	to 239;
	configuration 752;
};

object triplex_node {
	phases BS;
	power_12 100;
	name 1679;
	parent 239;
	nominal_voltage 120;
};

object triplex_node {
	phases BS;
	power_12 100;
	name 1697;
	parent 239;
	nominal_voltage 120;
};

object triplex_node {
	phases BS;
	power_12 100;
	name 899;
	parent 239;
	nominal_voltage 120;
};

object overhead_line {
	phases ACBN;
	from 10;
	name 1386;
	to 1354;
	length 561.815;
	configuration 528;
};

object overhead_line {
	phases AN;
	from 1354;
	name 1250;
	to 802;
	length 22.8798;
	configuration 834;
};

object fuse {
	phases AN;
	from 802;
	name 1042;
	current_limit 9999.0 A;
	to 659;
};

object overhead_line {
	phases AN;
	from 659;
	name 1418;
	to 170;
	length 64.7094;
	configuration 834;
};

object line_configuration {
	name 834;
	spacing 116;
	conductor_N 43;
	conductor_A 43;
	conductor_C 791;
	conductor_B 791;
};

object overhead_line {
	phases AN;
	from 170;
	name 431;
	to 307;
	length 186.866;
	configuration 834;
};

object transformer {
	phases AS;
	from 307;
	name 1059;
	to 1079;
	configuration 752;
};

object triplex_node {
	phases AS;
	power_12 100;
	name 538;
	parent 1079;
	nominal_voltage 120;
};

object triplex_node {
	phases AS;
	power_12 100;
	name 674;
	parent 1079;
	nominal_voltage 120;
};

object overhead_line {
	phases ACBN;
	from 1354;
	name 592;
	to 209;
	length 169.689;
	configuration 528;
};

object overhead_line {
	phases ACBN;
	from 209;
	name 199;
	to 1083;
	length 293.041;
	configuration 528;
};

object overhead_line {
	phases ACBN;
	from 1083;
	name 767;
	to 420;
	length 421.542;
	configuration 528;
};

object overhead_line {
	phases CN;
	from 420;
	name 1518;
	to 1172;
	length 25;
	configuration 1699;
};

object fuse {
	phases CN;
	from 1172;
	name 446;
	current_limit 9999.0 A;
	to 835;
};

object overhead_line {
	phases CN;
	from 835;
	name 619;
	to 699;
	length 235.932;
	configuration 1699;
};

object transformer {
	phases CS;
	from 699;
	name 711;
	to 812;
	configuration 752;
};

object triplex_node {
	phases CS;
	power_12 2697.44;
	name 981;
	parent 812;
	nominal_voltage 120;
};

object overhead_line {
	phases CN;
	from 699;
	name 1180;
	to 790;
	length 78.2066;
	configuration 1699;
};

object transformer {
	phases CS;
	from 790;
	name 1300;
	to 1432;
	configuration 752;
};

object triplex_node {
	phases CS;
	power_12 2172.58;
	name 363;
	parent 1432;
	nominal_voltage 120;
};

object triplex_node {
	phases CS;
	power_12 787.278;
	name 855;
	parent 1432;
	nominal_voltage 120;
};

object overhead_line {
	phases CN;
	from 790;
	name 1068;
	to 215;
	length 187.008;
	configuration 1699;
};

object overhead_line {
	phases CN;
	from 215;
	name 1014;
	to 372;
	length 268.521;
	configuration 1699;
};

object overhead_line {
	phases CN;
	from 372;
	name 1675;
	to 356;
	length 144.519;
	configuration 1699;
};

object overhead_line {
	phases CN;
	from 356;
	name 1099;
	to 387;
	length 159.822;
	configuration 1699;
};

object overhead_line {
	phases CN;
	from 387;
	name 1024;
	to 58;
	length 192.016;
	configuration 1699;
};

object overhead_line {
	phases CN;
	from 58;
	name 123;
	to 1550;
	length 242.98;
	configuration 1699;
};

object transformer {
	phases CS;
	from 1550;
	name 62;
	to 1193;
	configuration 752;
};

object triplex_node {
	phases CS;
	power_12 2914.44;
	name 1299;
	parent 1193;
	nominal_voltage 120;
};

object overhead_line {
	phases CN;
	from 387;
	name 49;
	to 1462;
	length 336;
	configuration 1699;
};

object transformer {
	phases CS;
	from 1462;
	name 917;
	to 55;
	configuration 752;
};

object triplex_node {
	phases CS;
	power_12 2540.99;
	name 1206;
	parent 55;
	nominal_voltage 120;
};

object overhead_line {
	phases CN;
	from 215;
	name 1562;
	to 429;
	length 115.812;
	configuration 1699;
};

object transformer {
	phases CS;
	from 429;
	name 841;
	to 1434;
	configuration 752;
};

object triplex_node {
	phases CS;
	power_12 4567.22;
	name 822;
	parent 1434;
	nominal_voltage 120;
};

object overhead_line {
	phases ACBN;
	from 420;
	name 103;
	to 375;
	length 546.446;
	configuration 528;
};

object transformer {
	phases BS;
	from 375;
	name 423;
	to 1408;
	configuration 752;
};

object triplex_node {
	phases BS;
	power_12 100;
	name 1115;
	parent 1408;
	nominal_voltage 120;
};

object overhead_line {
	phases ACBN;
	from 375;
	name 256;
	to 1337;
	length 131.068;
	configuration 528;
};

object overhead_line {
	phases ACBN;
	from 1337;
	name 718;
	to 1174;
	length 222.516;
	configuration 528;
};

object switch {
	status CLOSED;
	phases ACBN;
	from 1174;
	name 1104;
	to 1678;
};

object switch {
	status CLOSED;
	phases ACBN;
	from 1678;
	name 513;
	to 690;
};

object overhead_line {
	phases ACBN;
	from 690;
	name 837;
	to 312;
	length 25.0002;
	configuration 528;
};

object overhead_line {
	phases ACBN;
	from 312;
	name 1436;
	to 1234;
	length 226.378;
	configuration 528;
};

object transformer {
	phases AS;
	from 1234;
	name 102;
	to 860;
	configuration 752;
};

object triplex_node {
	phases AS;
	power_12 100;
	name 1514;
	parent 860;
	nominal_voltage 120;
};

object overhead_line {
	phases ACBN;
	from 1234;
	name 1165;
	to 65;
	length 222.764;
	configuration 528;
};

object overhead_line {
	phases ACBN;
	from 65;
	name 1273;
	to 38;
	length 489.892;
	configuration 528;
};

object overhead_line {
	phases ACBN;
	from 38;
	name 879;
	to 407;
	length 558.193;
	configuration 528;
};

object overhead_line {
	phases ACBN;
	from 407;
	name 1507;
	to 908;
	length 76.3128;
	configuration 528;
};

object overhead_line {
	phases ACBN;
	from 908;
	name 1297;
	to 574;
	length 329.719;
	configuration 528;
};

object transformer {
	phases BS;
	from 574;
	name 474;
	to 294;
	configuration 752;
};

object triplex_node {
	phases BS;
	power_12 100;
	name 404;
	parent 294;
	nominal_voltage 120;
};

object triplex_node {
	phases BS;
	power_12 100;
	name 1394;
	parent 294;
	nominal_voltage 120;
};

object triplex_node {
	phases BS;
	power_12 100;
	name 303;
	parent 294;
	nominal_voltage 120;
};

object overhead_line {
	phases ACBN;
	from 574;
	name 1532;
	to 1159;
	length 311.671;
	configuration 528;
};

object overhead_line {
	phases AN;
	from 1159;
	name 652;
	to 777;
	length 29.6986;
	configuration 1270;
};

object fuse {
	phases AN;
	from 777;
	name 1413;
	current_limit 9999.0 A;
	to 950;
};

object overhead_line {
	phases AN;
	from 950;
	name 846;
	to 1645;
	length 99.3975;
	configuration 1270;
};

object transformer {
	phases AS;
	from 1645;
	name 246;
	to 89;
	configuration 752;
};

object triplex_node {
	phases AS;
	power_12 100;
	name 156;
	parent 89;
	nominal_voltage 120;
};

object overhead_line {
	phases AN;
	from 1645;
	name 1320;
	to 1133;
	length 278.816;
	configuration 1270;
};

object overhead_line {
	phases AN;
	from 1133;
	name 154;
	to 1041;
	length 354.071;
	configuration 1270;
};

object overhead_line {
	phases AN;
	from 1041;
	name 94;
	to 396;
	length 348.862;
	configuration 1270;
};

object overhead_line {
	phases AN;
	from 396;
	name 881;
	to 999;
	length 238.633;
	configuration 1270;
};

object overhead_line {
	phases AN;
	from 999;
	name 527;
	to 104;
	length 333.034;
	configuration 1270;
};

object transformer {
	phases AS;
	from 104;
	name 1170;
	to 1393;
	configuration 752;
};

object triplex_node {
	phases AS;
	power_12 100;
	name 1511;
	parent 1393;
	nominal_voltage 120;
};

object overhead_line {
	phases AN;
	from 104;
	name 81;
	to 530;
	length 285.607;
	configuration 1270;
};

object overhead_line {
	phases AN;
	from 530;
	name 1494;
	to 1521;
	length 108.49;
	configuration 1270;
};

object transformer {
	phases AS;
	from 1521;
	name 907;
	to 1370;
	configuration 752;
};

object triplex_node {
	phases AS;
	power_12 100;
	name 1353;
	parent 1370;
	nominal_voltage 120;
};

object triplex_node {
	phases AS;
	power_12 100;
	name 993;
	parent 1370;
	nominal_voltage 120;
};

object overhead_line {
	phases A;
	from 530;
	name 1650;
	to 255;
	length 159.789;
	configuration 1270;
};

object underground_line {
	phases A;
	from 255;
	name 845;
	to 877;
	length 215.958;
	configuration 1118;
};

object overhead_line {
	phases AN;
	from 999;
	name 1343;
	to 557;
	length 222.075;
	configuration 1270;
};

object transformer {
	phases AS;
	from 557;
	name 435;
	to 296;
	configuration 752;
};

object triplex_node {
	phases AS;
	power_12 100;
	name 63;
	parent 296;
	nominal_voltage 120;
};

object overhead_line {
	phases AN;
	from 1041;
	name 1396;
	to 1637;
	length 252;
	configuration 1270;
};

object transformer {
	phases AS;
	from 1637;
	name 1446;
	to 253;
	configuration 752;
};

object triplex_node {
	phases AS;
	power_12 100;
	name 1021;
	parent 253;
	nominal_voltage 120;
};

object overhead_line {
	phases ACBN;
	from 1159;
	name 397;
	to 447;
	length 351.049;
	configuration 528;
};

object transformer {
	phases AS;
	from 447;
	name 350;
	to 1526;
	configuration 752;
};

object triplex_node {
	phases AS;
	power_12 100;
	name 736;
	parent 1526;
	nominal_voltage 120;
};

object overhead_line {
	phases ACBN;
	from 447;
	name 1048;
	to 1564;
	length 78.1503;
	configuration 528;
};

object overhead_line {
	phases AN;
	from 1159;
	name 1517;
	to 480;
	length 29.7713;
	configuration 1270;
};

object fuse {
	phases AN;
	from 480;
	name 478;
	current_limit 9999.0 A;
	to 482;
};

object overhead_line {
	phases AN;
	from 482;
	name 666;
	to 1196;
	length 486.611;
	configuration 1270;
};

object line_configuration {
	name 1270;
	spacing 116;
	conductor_N 680;
	conductor_A 680;
	conductor_C 791;
	conductor_B 791;
};

object overhead_line {
	phases AN;
	from 1196;
	name 792;
	to 24;
	length 346.911;
	configuration 1270;
};

object transformer {
	phases AS;
	from 24;
	name 813;
	to 106;
	configuration 752;
};

object triplex_node {
	phases AS;
	power_12 100;
	name 1578;
	parent 106;
	nominal_voltage 120;
};

object triplex_node {
	phases AS;
	power_12 100;
	name 125;
	parent 106;
	nominal_voltage 120;
};

object overhead_line {
	phases AN;
	from 24;
	name 805;
	to 694;
	length 375.825;
	configuration 834;
};

object transformer {
	phases AS;
	from 694;
	name 1061;
	to 224;
	configuration 752;
};

object triplex_node {
	phases AS;
	power_12 100;
	name 1457;
	parent 224;
	nominal_voltage 120;
};

object overhead_line {
	phases AN;
	from 694;
	name 398;
	to 1651;
	length 341.47;
	configuration 834;
};

object transformer {
	phases AS;
	from 1651;
	name 469;
	to 1510;
	configuration 752;
};

object triplex_node {
	phases AS;
	power_12 100;
	name 286;
	parent 1510;
	nominal_voltage 120;
};

object overhead_line {
	phases AN;
	from 1651;
	name 984;
	to 61;
	length 343.023;
	configuration 834;
};

object overhead_line {
	phases AN;
	from 61;
	name 392;
	to 976;
	length 226.764;
	configuration 1270;
};

object transformer {
	phases AS;
	from 976;
	name 1467;
	to 241;
	configuration 752;
};

object triplex_node {
	phases AS;
	power_12 100;
	name 850;
	parent 241;
	nominal_voltage 120;
};

object overhead_line {
	phases AN;
	from 24;
	name 181;
	to 186;
	length 157.693;
	configuration 1270;
};

object transformer {
	phases AS;
	from 186;
	name 1023;
	to 927;
	configuration 752;
};

object triplex_node {
	phases AS;
	power_12 100;
	name 163;
	parent 927;
	nominal_voltage 120;
};

object overhead_line {
	phases AN;
	from 24;
	name 621;
	to 952;
	length 196.101;
	configuration 834;
};

object overhead_line {
	phases AN;
	from 952;
	name 1056;
	to 378;
	length 243.492;
	configuration 834;
};

object transformer {
	phases AS;
	from 378;
	name 274;
	to 1261;
	configuration 752;
};

object triplex_node {
	phases AS;
	power_12 100;
	name 723;
	parent 1261;
	nominal_voltage 120;
};

object triplex_node {
	phases AS;
	power_12 100;
	name 1280;
	parent 1261;
	nominal_voltage 120;
};

object overhead_line {
	phases AN;
	from 378;
	name 268;
	to 1713;
	length 198.508;
	configuration 834;
};

object overhead_line {
	phases AN;
	from 1713;
	name 735;
	to 635;
	length 293.785;
	configuration 1270;
};

object overhead_line {
	phases AN;
	from 635;
	name 867;
	to 190;
	length 215.575;
	configuration 1270;
};

object transformer {
	phases AS;
	from 190;
	name 934;
	to 1202;
	configuration 752;
};

object triplex_node {
	phases AS;
	power_12 100;
	name 1435;
	parent 1202;
	nominal_voltage 120;
};

object triplex_node {
	phases AS;
	power_12 100;
	name 72;
	parent 1202;
	nominal_voltage 120;
};

object overhead_line {
	phases AN;
	from 190;
	name 13;
	to 144;
	length 216.201;
	configuration 1270;
};

object transformer {
	phases AS;
	from 144;
	name 1173;
	to 130;
	configuration 752;
};

object triplex_node {
	phases AS;
	power_12 100;
	name 338;
	parent 130;
	nominal_voltage 120;
};

object overhead_line {
	phases AN;
	from 1713;
	name 333;
	to 1332;
	length 177.49;
	configuration 834;
};

object transformer {
	phases AS;
	from 1332;
	name 1387;
	to 219;
	configuration 752;
};

object triplex_node {
	phases AS;
	power_12 100;
	name 443;
	parent 219;
	nominal_voltage 120;
};

object overhead_line {
	phases AN;
	from 378;
	name 1475;
	to 1113;
	length 116.619;
	configuration 1270;
};

object overhead_line {
	phases AN;
	from 1113;
	name 661;
	to 244;
	length 245.206;
	configuration 1270;
};

object overhead_line {
	phases AN;
	from 244;
	name 1643;
	to 1351;
	length 361.047;
	configuration 1270;
};

object overhead_line {
	phases AN;
	from 1351;
	name 1331;
	to 1236;
	length 204.81;
	configuration 1270;
};

object transformer {
	phases AS;
	from 1236;
	name 439;
	to 1185;
	configuration 752;
};

object triplex_node {
	phases AS;
	power_12 100;
	name 602;
	parent 1185;
	nominal_voltage 120;
};

object overhead_line {
	phases AN;
	from 1196;
	name 1071;
	to 1034;
	length 150.83;
	configuration 1270;
};

object transformer {
	phases AS;
	from 1034;
	name 970;
	to 6;
	configuration 752;
};

object triplex_node {
	phases AS;
	power_12 100;
	name 1584;
	parent 6;
	nominal_voltage 120;
};

object overhead_line {
	phases ACBN;
	from 908;
	name 331;
	to 1636;
	length 361.26;
	configuration 528;
};

object overhead_line {
	phases AN;
	from 1636;
	name 3;
	to 874;
	length 25.0002;
	configuration 1270;
};

object fuse {
	phases AN;
	from 874;
	name 1350;
	current_limit 9999.0 A;
	to 1225;
};

object overhead_line {
	phases AN;
	from 1225;
	name 1652;
	to 703;
	length 81.4961;
	configuration 1270;
};

object overhead_line {
	phases AN;
	from 703;
	name 347;
	to 921;
	length 177.052;
	configuration 1270;
};

object transformer {
	phases AS;
	from 921;
	name 1595;
	to 493;
	configuration 752;
};

object triplex_node {
	phases AS;
	power_12 100;
	name 324;
	parent 493;
	nominal_voltage 120;
};

object overhead_line {
	phases ACBN;
	from 1636;
	name 1515;
	to 633;
	length 303.262;
	configuration 528;
};

object overhead_line {
	phases ACBN;
	from 633;
	name 359;
	to 1074;
	length 240.007;
	configuration 528;
};

object transformer {
	phases BS;
	from 1074;
	name 50;
	to 110;
	configuration 752;
};

object triplex_node {
	phases BS;
	power_12 100;
	name 354;
	parent 110;
	nominal_voltage 120;
};

object triplex_node {
	phases BS;
	power_12 100;
	name 1384;
	parent 110;
	nominal_voltage 120;
};

object overhead_line {
	phases ACBN;
	from 1074;
	name 196;
	to 40;
	length 258.716;
	configuration 528;
};

object transformer {
	phases CS;
	from 40;
	name 1559;
	to 1673;
	configuration 752;
};

object triplex_node {
	phases CS;
	power_12 3504.9;
	name 165;
	parent 1673;
	nominal_voltage 120;
};

object overhead_line {
	phases ACBN;
	from 40;
	name 1031;
	to 1565;
	length 311.169;
	configuration 528;
};

object overhead_line {
	phases ACBN;
	from 1565;
	name 60;
	to 26;
	length 393.013;
	configuration 528;
};

object overhead_line {
	phases AN;
	from 26;
	name 1348;
	to 717;
	length 219.619;
	configuration 1270;
};

object transformer {
	phases AS;
	from 717;
	name 639;
	to 232;
	configuration 752;
};

object triplex_node {
	phases AS;
	power_12 100;
	name 57;
	parent 232;
	nominal_voltage 120;
};

object overhead_line {
	phases CN;
	from 26;
	name 425;
	to 1219;
	length 25;
	configuration 1699;
};

object fuse {
	phases CN;
	from 1219;
	name 826;
	current_limit 9999.0 A;
	to 814;
};

object overhead_line {
	phases CN;
	from 814;
	name 1484;
	to 37;
	length 467.549;
	configuration 1699;
};

object transformer {
	phases CS;
	from 37;
	name 940;
	to 1313;
	configuration 752;
};

object triplex_node {
	phases CS;
	power_12 3111.26;
	name 448;
	parent 1313;
	nominal_voltage 120;
};

object triplex_node {
	phases CS;
	power_12 507.189;
	name 1216;
	parent 1313;
	nominal_voltage 120;
};

object overhead_line {
	phases CN;
	from 37;
	name 250;
	to 914;
	length 76.1979;
	configuration 1699;
};

object transformer {
	phases CS;
	from 914;
	name 746;
	to 1487;
	configuration 752;
};

object triplex_node {
	phases CS;
	power_12 100;
	name 1329;
	parent 1487;
	nominal_voltage 120;
};

object overhead_line {
	phases CN;
	from 914;
	name 194;
	to 1223;
	length 158.17;
	configuration 1699;
};

object transformer {
	phases CS;
	from 1223;
	name 1674;
	to 349;
	configuration 752;
};

object triplex_node {
	phases CS;
	power_12 3053.22;
	name 1477;
	parent 349;
	nominal_voltage 120;
};

object overhead_line {
	phases ACBN;
	from 26;
	name 1622;
	to 1294;
	length 370.349;
	configuration 528;
};

object overhead_line {
	phases ACBN;
	from 1294;
	name 1481;
	to 1307;
	length 436.493;
	configuration 528;
};

object overhead_line {
	phases ACBN;
	from 1307;
	name 297;
	to 92;
	length 231.048;
	configuration 528;
};

object overhead_line {
	phases ACBN;
	from 92;
	name 675;
	to 597;
	length 16.7208;
	configuration 127;
};

object fuse {
	phases ACBN;
	from 597;
	name 543;
	current_limit 9999.0 A;
	to 1340;
};

object overhead_line {
	phases ACBN;
	from 1340;
	name 610;
	to 449;
	length 13.0467;
	configuration 127;
};

object line_configuration {
	name 127;
	spacing 116;
	conductor_N 43;
	conductor_A 43;
	conductor_C 43;
	conductor_B 43;
};

object overhead_line_conductor {
	resistance 2.44;
	name 43;
	geometric_mean_radius 0.00479;
};

object overhead_line {
	phases ACBN;
	from 449;
	name 1626;
	to 346;
	length 198.672;
	configuration 127;
};

object overhead_line {
	phases ACBN;
	from 346;
	name 1000;
	to 656;
	length 333.666;
	configuration 127;
};

object overhead_line {
	phases ACBN;
	from 656;
	name 343;
	to 609;
	length 425.544;
	configuration 127;
};

object overhead_line {
	phases ACBN;
	from 609;
	name 628;
	to 935;
	length 380.42;
	configuration 127;
};

object overhead_line {
	phases ACBN;
	from 935;
	name 496;
	to 536;
	length 366.98;
	configuration 127;
};

object overhead_line {
	phases ACBN;
	from 536;
	name 913;
	to 1281;
	length 397.887;
	configuration 127;
};

object overhead_line {
	phases ACBN;
	from 1281;
	name 720;
	to 1026;
	length 514.255;
	configuration 127;
};

object overhead_line {
	phases ACBN;
	from 1026;
	name 1499;
	to 1401;
	length 338.245;
	configuration 127;
};

object overhead_line {
	phases ACBN;
	from 1401;
	name 781;
	to 437;
	length 479.758;
	configuration 127;
};

object overhead_line {
	phases ACBN;
	from 437;
	name 604;
	to 587;
	length 428.894;
	configuration 127;
};

object overhead_line {
	phases ACBN;
	from 587;
	name 731;
	to 1417;
	length 501.183;
	configuration 127;
};

object overhead_line {
	phases ACB;
	from 1417;
	name 1069;
	to 1706;
	length 201.729;
	configuration 162;
};

object underground_line {
	phases ACB;
	from 1706;
	name 95;
	to 159;
	length 28.5185;
	configuration 1118;
};

object fuse {
	phases ACB;
	from 159;
	name 254;
	current_limit 9999.0 A;
	to 554;
};

object underground_line {
	phases ACB;
	from 554;
	name 954;
	to 986;
	length 110.07;
	configuration 1118;
};

object underground_line {
	phases ACB;
	from 986;
	name 525;
	to 1007;
	length 158.171;
	configuration 1118;
};

object transformer {
	phases AS;
	from 1007;
	name 1106;
	to 96;
	configuration 752;
};

object triplex_node {
	phases AS;
	power_12 100;
	name 1318;
	parent 96;
	nominal_voltage 120;
};

object triplex_node {
	phases AS;
	power_12 100;
	name 464;
	parent 96;
	nominal_voltage 120;
};

object underground_line {
	phases AN;
	from 1007;
	name 729;
	to 705;
	length 212.725;
	configuration 1118;
};

object transformer {
	phases AS;
	from 705;
	name 1330;
	to 1309;
	configuration 752;
};

object triplex_node {
	phases AS;
	power_12 100;
	name 1312;
	parent 1309;
	nominal_voltage 120;
};

object underground_line {
	phases AN;
	from 705;
	name 178;
	to 318;
	length 205.18;
	configuration 1118;
};

object transformer {
	phases AS;
	from 318;
	name 949;
	to 291;
	configuration 752;
};

object triplex_node {
	phases AS;
	power_12 100;
	name 1100;
	parent 291;
	nominal_voltage 120;
};

object triplex_node {
	phases AS;
	power_12 100;
	name 157;
	parent 291;
	nominal_voltage 120;
};

object triplex_node {
	phases AS;
	power_12 100;
	name 1091;
	parent 291;
	nominal_voltage 120;
};

object underground_line {
	phases AN;
	from 318;
	name 762;
	to 151;
	length 214.739;
	configuration 1118;
};

object transformer {
	phases AS;
	from 151;
	name 844;
	to 1519;
	configuration 752;
};

object triplex_node {
	phases AS;
	power_12 100;
	name 453;
	parent 1519;
	nominal_voltage 120;
};

object underground_line {
	phases AN;
	from 151;
	name 1412;
	to 1285;
	length 305.264;
	configuration 1118;
};

object transformer {
	phases AS;
	from 1285;
	name 21;
	to 783;
	configuration 752;
};

object triplex_node {
	phases AS;
	power_12 100;
	name 741;
	parent 783;
	nominal_voltage 120;
};

object underground_line {
	phases ACBN;
	from 1007;
	name 1483;
	to 603;
	length 217.404;
	configuration 1118;
};

object transformer {
	phases BS;
	from 603;
	name 926;
	to 1496;
	configuration 752;
};

object triplex_node {
	phases BS;
	power_12 100;
	name 1107;
	parent 1496;
	nominal_voltage 120;
};

object underground_line {
	phases ACB;
	from 603;
	name 1482;
	to 829;
	length 265.389;
	configuration 1118;
};

object underground_line {
	phases B;
	from 829;
	name 1577;
	to 1672;
	length 83.1156;
	configuration 1118;
};

object underground_line {
	phases ACB;
	from 986;
	name 1184;
	to 486;
	length 652.912;
	configuration 1118;
};

object fuse {
	phases ACB;
	from 486;
	name 662;
	current_limit 9999.0 A;
	to 1399;
};

object underground_line {
	phases ACB;
	from 1399;
	name 733;
	to 859;
	length 29.5374;
	configuration 1118;
};

object underground_line {
	phases ACB;
	from 859;
	name 765;
	to 483;
	length 29.9672;
	configuration 1118;
};

object switch {
	status CLOSED;
	phases ACBN;
	from 483;
	name 751;
	to 864;
};

object switch {
	status CLOSED;
	phases ACB;
	from 864;
	name 1563;
	to 1209;
};

object underground_line {
	phases ACB;
	from 859;
	name 109;
	to 758;
	length 28.999;
	configuration 1118;
};

object fuse {
	phases ACB;
	from 758;
	name 1365;
	current_limit 9999.0 A;
	to 489;
};

object underground_line {
	phases ACB;
	from 489;
	name 842;
	to 202;
	length 486.139;
	configuration 1118;
};

object underground_line {
	phases ACB;
	from 202;
	name 1447;
	to 816;
	length 91.9686;
	configuration 1118;
};

object underground_line {
	phases ACBN;
	from 816;
	name 1402;
	to 704;
	length 140;
	configuration 1118;
};

object transformer {
	phases BS;
	from 704;
	name 1212;
	to 1683;
	configuration 752;
};

object triplex_node {
	phases BS;
	power_12 100;
	name 463;
	parent 1683;
	nominal_voltage 120;
};

object triplex_node {
	phases BS;
	power_12 100;
	name 552;
	parent 1683;
	nominal_voltage 120;
};

object triplex_node {
	phases BS;
	power_12 100;
	name 693;
	parent 1683;
	nominal_voltage 120;
};

object underground_line {
	phases ACBN;
	from 704;
	name 727;
	to 1441;
	length 280.001;
	configuration 1118;
};

object transformer {
	phases CS;
	from 1441;
	name 1452;
	to 677;
	configuration 752;
};

object triplex_node {
	phases CS;
	power_12 2710.05;
	name 1687;
	parent 677;
	nominal_voltage 120;
};

object triplex_node {
	phases CS;
	power_12 1763.8;
	name 509;
	parent 677;
	nominal_voltage 120;
};

object triplex_node {
	phases CS;
	power_12 3545.27;
	name 1400;
	parent 677;
	nominal_voltage 120;
};

object underground_line {
	phases CN;
	from 1441;
	name 1397;
	to 1609;
	length 189.809;
	configuration 1118;
};

object underground_line {
	phases CN;
	from 1609;
	name 207;
	to 848;
	length 236.79;
	configuration 1118;
};

object transformer {
	phases CS;
	from 848;
	name 586;
	to 454;
	configuration 752;
};

object triplex_node {
	phases CS;
	power_12 100;
	name 1148;
	parent 454;
	nominal_voltage 120;
};

object underground_line {
	phases C;
	from 848;
	name 1611;
	to 948;
	length 75.43;
	configuration 1118;
};

object underground_line {
	phases C;
	from 948;
	name 0;
	to 200;
	length 137.48;
	configuration 1118;
};

object transformer {
	phases CS;
	from 200;
	name 1407;
	to 1657;
	configuration 752;
};

object triplex_node {
	phases CS;
	power_12 100;
	name 424;
	parent 1657;
	nominal_voltage 120;
};

object triplex_node {
	phases CS;
	power_12 1942.96;
	name 519;
	parent 1657;
	nominal_voltage 120;
};

object triplex_node {
	phases CS;
	power_12 3005.28;
	name 155;
	parent 1657;
	nominal_voltage 120;
};

object triplex_node {
	phases CS;
	power_12 2369.4;
	name 576;
	parent 1657;
	nominal_voltage 120;
};

object underground_line {
	phases CN;
	from 200;
	name 512;
	to 730;
	length 133.57;
	configuration 1118;
};

object transformer {
	phases CS;
	from 730;
	name 1629;
	to 1045;
	configuration 752;
};

object triplex_node {
	phases CS;
	power_12 1768.85;
	name 1543;
	parent 1045;
	nominal_voltage 120;
};

object triplex_node {
	phases CS;
	power_12 1836.98;
	name 1049;
	parent 1045;
	nominal_voltage 120;
};

object underground_line {
	phases ACBN;
	from 1441;
	name 920;
	to 436;
	length 258.114;
	configuration 1118;
};

object transformer {
	phases AS;
	from 436;
	name 854;
	to 1284;
	configuration 752;
};

object triplex_node {
	phases AS;
	power_12 100;
	name 1210;
	parent 1284;
	nominal_voltage 120;
};

object triplex_node {
	phases AS;
	power_12 100;
	name 1427;
	parent 1284;
	nominal_voltage 120;
};

object line_configuration {
	name 1118;
	spacing 1001;
	conductor_N 671;
	conductor_A 671;
	conductor_C 671;
	conductor_B 671;
};

object line_spacing {
	distance_AN 0.000000;
	name 1001;
	distance_CN 0.000000;
	distance_BC 0.500000;
	distance_AB 0.500000;
	distance_BN 0.000000;
	distance_AC 1.000000;
};

object underground_line_conductor {
	conductor_gmr 0.008830;
	conductor_resistance 1.540000;
	shield_resistance 0.000000;
	neutral_gmr 0.002080;
	outer_diameter 0.980000;
	neutral_strands 6.000000;
	neutral_resistance 14.872000;
	neutral_diameter 0.064000;
	conductor_diameter 0.292000;
	shield_gmr 0.000000;
	name 671;
};

object underground_line {
	phases ACBN;
	from 436;
	name 1569;
	to 623;
	length 126.182;
	configuration 1118;
};

object underground_line {
	phases ACBN;
	from 623;
	name 740;
	to 559;
	length 230.013;
	configuration 1118;
};

object transformer {
	phases BS;
	from 559;
	name 1017;
	to 836;
	configuration 752;
};

object triplex_node {
	phases BS;
	power_12 100;
	name 807;
	parent 836;
	nominal_voltage 120;
};

object triplex_node {
	phases BS;
	power_12 100;
	name 833;
	parent 836;
	nominal_voltage 120;
};

object underground_line {
	phases BN;
	from 559;
	name 1647;
	to 495;
	length 353.102;
	configuration 1118;
};

object transformer {
	phases BS;
	from 495;
	name 1488;
	to 520;
	configuration 752;
};

object triplex_node {
	phases BS;
	power_12 100;
	name 672;
	parent 520;
	nominal_voltage 120;
};

object underground_line {
	phases B;
	from 495;
	name 1258;
	to 1460;
	length 98.1972;
	configuration 1118;
};

object underground_line {
	phases B;
	from 1460;
	name 716;
	to 607;
	length 143.061;
	configuration 1118;
};

object transformer {
	phases BS;
	from 607;
	name 1214;
	to 282;
	configuration 752;
};

object triplex_node {
	phases BS;
	power_12 100;
	name 329;
	parent 282;
	nominal_voltage 120;
};

object underground_line {
	phases ACBN;
	from 559;
	name 500;
	to 1102;
	length 244.614;
	configuration 1118;
};

object transformer {
	phases AS;
	from 1102;
	name 894;
	to 25;
	configuration 752;
};

object triplex_node {
	phases AS;
	power_12 100;
	name 82;
	parent 25;
	nominal_voltage 120;
};

object underground_line {
	phases ACBN;
	from 1102;
	name 941;
	to 787;
	length 174.374;
	configuration 1118;
};

object underground_line {
	phases ACBN;
	from 787;
	name 1040;
	to 1371;
	length 186.186;
	configuration 1118;
};

object transformer {
	phases BS;
	from 1371;
	name 632;
	to 270;
	configuration 752;
};

object triplex_node {
	phases BS;
	power_12 100;
	name 1658;
	parent 270;
	nominal_voltage 120;
};

object triplex_node {
	phases BS;
	power_12 100;
	name 1516;
	parent 270;
	nominal_voltage 120;
};

object underground_line {
	phases ACBN;
	from 1371;
	name 1375;
	to 983;
	length 218.151;
	configuration 1118;
};

object transformer {
	phases AS;
	from 983;
	name 773;
	to 1116;
	configuration 752;
};

object triplex_node {
	phases AS;
	power_12 100;
	name 1450;
	parent 1116;
	nominal_voltage 120;
};

object underground_line {
	phases ACBN;
	from 983;
	name 956;
	to 1166;
	length 199.729;
	configuration 1118;
};

object transformer {
	phases CS;
	from 1166;
	name 1022;
	to 1029;
	configuration 752;
};

object triplex_node {
	phases CS;
	power_12 3290.42;
	name 549;
	parent 1029;
	nominal_voltage 120;
};

object triplex_node {
	phases CS;
	power_12 2374.45;
	name 305;
	parent 1029;
	nominal_voltage 120;
};

object underground_line {
	phases ACBN;
	from 1166;
	name 1349;
	to 1684;
	length 140.001;
	configuration 1118;
};

object transformer {
	phases BS;
	from 1684;
	name 27;
	to 322;
	configuration 752;
};

object triplex_node {
	phases BS;
	power_12 100;
	name 484;
	parent 322;
	nominal_voltage 120;
};

object triplex_node {
	phases BS;
	power_12 100;
	name 1676;
	parent 322;
	nominal_voltage 120;
};

object transformer {
	phases CS;
	from 787;
	name 1275;
	to 721;
	configuration 752;
};

object triplex_node {
	phases CS;
	power_12 1988.38;
	name 1078;
	parent 721;
	nominal_voltage 120;
};

object transformer {
	phases CS;
	from 623;
	name 1416;
	to 68;
	configuration 752;
};

object triplex_node {
	phases CS;
	power_12 4282.08;
	name 514;
	parent 68;
	nominal_voltage 120;
};

object transformer {
	phases AS;
	from 816;
	name 1455;
	to 738;
	configuration 752;
};

object triplex_node {
	phases AS;
	power_12 100;
	name 763;
	parent 738;
	nominal_voltage 120;
};

object triplex_node {
	phases AS;
	power_12 100;
	name 505;
	parent 738;
	nominal_voltage 120;
};

object triplex_node {
	phases AS;
	power_12 100;
	name 1530;
	parent 738;
	nominal_voltage 120;
};

object underground_line {
	phases ACB;
	from 859;
	name 911;
	to 1471;
	length 29.715;
	configuration 1118;
};

object switch {
	status CLOSED;
	phases ACBN;
	from 1471;
	name 1179;
	to 348;
};

object switch {
	status CLOSED;
	phases ACB;
	from 348;
	name 1027;
	to 73;
};

object underground_line {
	phases ACB;
	from 73;
	name 573;
	to 1095;
	length 520.593;
	configuration 1118;
};

object underground_line {
	phases ACB;
	from 1095;
	name 298;
	to 1122;
	length 524.298;
	configuration 1118;
};

object underground_line {
	phases ACB;
	from 1122;
	name 317;
	to 1087;
	length 499.641;
	configuration 1118;
};

object underground_line {
	phases ACB;
	from 1087;
	name 541;
	to 1391;
	length 311.538;
	configuration 1118;
};

object switch {
	status CLOSED;
	phases ACBN;
	from 1391;
	name 553;
	to 1546;
};

object switch {
	status CLOSED;
	phases ACB;
	from 1546;
	name 1149;
	to 1168;
};

object underground_line {
	phases ACB;
	from 1168;
	name 1046;
	to 1101;
	length 21.6692;
	configuration 1118;
};

object overhead_line {
	phases ACBN;
	from 1101;
	name 824;
	to 1057;
	length 26.3767;
	configuration 528;
};

object underground_line {
	phases AN;
	from 1057;
	name 1419;
	to 1378;
	length 30.0841;
	configuration 1118;
};

object fuse {
	phases A;
	from 1378;
	name 119;
	current_limit 9999.0 A;
	to 1016;
};

object underground_line {
	phases A;
	from 1016;
	name 247;
	to 522;
	length 248.664;
	configuration 1118;
};

object transformer {
	phases AS;
	from 522;
	name 1233;
	to 1666;
	configuration 752;
};

object triplex_node {
	phases AS;
	power_12 100;
	name 341;
	parent 1666;
	nominal_voltage 120;
};

object triplex_node {
	phases AS;
	power_12 100;
	name 167;
	parent 1666;
	nominal_voltage 120;
};

object triplex_node {
	phases AS;
	power_12 100;
	name 958;
	parent 1666;
	nominal_voltage 120;
};

object underground_line {
	phases AN;
	from 522;
	name 218;
	to 684;
	length 120.109;
	configuration 1118;
};

object transformer {
	phases AS;
	from 684;
	name 487;
	to 240;
	configuration 752;
};

object triplex_node {
	phases AS;
	power_12 100;
	name 411;
	parent 240;
	nominal_voltage 120;
};

object underground_line {
	phases AN;
	from 684;
	name 1138;
	to 1656;
	length 139.46;
	configuration 1118;
};

object transformer {
	phases AS;
	from 1656;
	name 951;
	to 1639;
	configuration 752;
};

object triplex_node {
	phases AS;
	power_12 100;
	name 670;
	parent 1639;
	nominal_voltage 120;
};

object triplex_node {
	phases AS;
	power_12 100;
	name 264;
	parent 1639;
	nominal_voltage 120;
};

object triplex_node {
	phases AS;
	power_12 100;
	name 390;
	parent 1639;
	nominal_voltage 120;
};

object triplex_node {
	phases AS;
	power_12 100;
	name 658;
	parent 1639;
	nominal_voltage 120;
};

object underground_line {
	phases AN;
	from 1656;
	name 452;
	to 1454;
	length 140.033;
	configuration 1118;
};

object transformer {
	phases AS;
	from 1454;
	name 1597;
	to 339;
	configuration 752;
};

object triplex_node {
	phases AS;
	power_12 100;
	name 1163;
	parent 339;
	nominal_voltage 120;
};

object triplex_node {
	phases AS;
	power_12 100;
	name 1189;
	parent 339;
	nominal_voltage 120;
};

object triplex_node {
	phases AS;
	power_12 100;
	name 1523;
	parent 339;
	nominal_voltage 120;
};

object underground_line {
	phases AN;
	from 1454;
	name 799;
	to 1445;
	length 108.756;
	configuration 1118;
};

object transformer {
	phases AS;
	from 1445;
	name 142;
	to 451;
	configuration 752;
};

object triplex_node {
	phases AS;
	power_12 100;
	name 1465;
	parent 451;
	nominal_voltage 120;
};

object overhead_line {
	phases ACBN;
	from 1057;
	name 638;
	to 362;
	length 191.748;
	configuration 528;
};

object overhead_line {
	phases ACBN;
	from 362;
	name 1156;
	to 213;
	length 80.5873;
	configuration 528;
};

object transformer {
	phases BS;
	from 213;
	name 1204;
	to 316;
	configuration 752;
};

object triplex_node {
	phases BS;
	power_12 100;
	name 191;
	parent 316;
	nominal_voltage 120;
};

object overhead_line {
	phases ACBN;
	from 213;
	name 402;
	to 1421;
	length 240.081;
	configuration 528;
};

object overhead_line {
	phases ACBN;
	from 1421;
	name 1474;
	to 52;
	length 317.835;
	configuration 528;
};

object overhead_line {
	phases ACBN;
	from 52;
	name 340;
	to 962;
	length 201.027;
	configuration 528;
};

object overhead_line {
	phases ACBN;
	from 962;
	name 290;
	to 1688;
	length 201.443;
	configuration 528;
};

object overhead_line {
	phases ACBN;
	from 1688;
	name 1696;
	to 1592;
	length 224.687;
	configuration 528;
};

object overhead_line {
	phases ACBN;
	from 1592;
	name 1590;
	to 1549;
	length 216.095;
	configuration 528;
};

object overhead_line {
	phases AN;
	from 1549;
	name 1594;
	to 817;
	length 474.794;
	configuration 528;
};

object overhead_line {
	phases AN;
	from 817;
	name 865;
	to 904;
	length 25.0001;
	configuration 834;
};

object fuse {
	phases AN;
	from 904;
	name 1194;
	current_limit 9999.0 A;
	to 488;
};

object overhead_line {
	phases AN;
	from 488;
	name 269;
	to 153;
	length 325.822;
	configuration 834;
};

object transformer {
	phases AS;
	from 153;
	name 1668;
	to 756;
	configuration 752;
};

object triplex_node {
	phases AS;
	power_12 100;
	name 994;
	parent 756;
	nominal_voltage 120;
};

object overhead_line {
	phases ACBN;
	from 1592;
	name 1178;
	to 897;
	length 90.9393;
	configuration 528;
};

object overhead_line {
	phases ACBN;
	from 897;
	name 939;
	to 784;
	length 24.9999;
	configuration 528;
};

object overhead_line {
	phases ACBN;
	from 346;
	name 1617;
	to 1263;
	length 191.256;
	configuration 162;
};

object transformer {
	phases AS;
	from 1263;
	name 870;
	to 593;
	configuration 752;
};

object triplex_node {
	phases AS;
	power_12 100;
	name 820;
	parent 593;
	nominal_voltage 120;
};

object overhead_line {
	phases BN;
	from 1263;
	name 1005;
	to 600;
	length 40.0012;
	configuration 162;
};

object transformer {
	phases BS;
	from 600;
	name 304;
	to 1150;
	configuration 752;
};

object triplex_node {
	phases BS;
	power_12 100;
	name 575;
	parent 1150;
	nominal_voltage 120;
};

object overhead_line {
	phases ACBN;
	from 449;
	name 69;
	to 998;
	length 29.1022;
	configuration 127;
};

object overhead_line {
	phases ACBN;
	from 92;
	name 361;
	to 7;
	length 32.2093;
	configuration 127;
};

object overhead_line {
	phases ACBN;
	from 7;
	name 23;
	to 1596;
	length 19.976;
	configuration 127;
};

object overhead_line {
	phases ACBN;
	from 92;
	name 924;
	to 535;
	length 158.967;
	configuration 528;
};

object overhead_line {
	phases ACBN;
	from 535;
	name 770;
	to 789;
	length 15.1854;
	configuration 528;
};

object fuse {
	phases ACBN;
	from 789;
	name 915;
	current_limit 9999.0 A;
	to 183;
};

object overhead_line {
	phases ACBN;
	from 183;
	name 1583;
	to 788;
	length 14.881;
	configuration 528;
};

object overhead_line {
	phases ACBN;
	from 788;
	name 660;
	to 342;
	length 401.908;
	configuration 528;
};

object overhead_line {
	phases ACBN;
	from 342;
	name 1006;
	to 724;
	length 30;
	configuration 528;
};

object overhead_line {
	phases AN;
	from 724;
	name 823;
	to 692;
	length 25.2353;
	configuration 1270;
};

object fuse {
	phases AN;
	from 692;
	name 1604;
	current_limit 9999.0 A;
	to 39;
};

object overhead_line {
	phases AN;
	from 39;
	name 507;
	to 696;
	length 185.337;
	configuration 1270;
};

object overhead_line {
	phases AN;
	from 696;
	name 1448;
	to 1377;
	length 210.084;
	configuration 1270;
};

object transformer {
	phases AS;
	from 1377;
	name 961;
	to 195;
	configuration 752;
};

object triplex_node {
	phases AS;
	power_12 100;
	name 936;
	parent 195;
	nominal_voltage 120;
};

object overhead_line {
	phases ACBN;
	from 724;
	name 1181;
	to 857;
	length 212.564;
	configuration 528;
};

object transformer {
	phases CS;
	from 857;
	name 895;
	to 380;
	configuration 752;
};

object triplex_node {
	phases CS;
	power_12 4748.9;
	name 133;
	parent 380;
	nominal_voltage 120;
};

object overhead_line {
	phases ACBN;
	from 857;
	name 279;
	to 1290;
	length 747.809;
	configuration 528;
};

object overhead_line {
	phases ACBN;
	from 1290;
	name 313;
	to 1094;
	length 265.618;
	configuration 528;
};

object overhead_line {
	phases ACBN;
	from 1094;
	name 418;
	to 1686;
	length 507.61;
	configuration 528;
};

object overhead_line {
	phases ACBN;
	from 1686;
	name 1411;
	to 510;
	length 269.729;
	configuration 528;
};

object transformer {
	phases BS;
	from 510;
	name 1035;
	to 134;
	configuration 752;
};

object triplex_node {
	phases BS;
	power_12 100;
	name 1420;
	parent 134;
	nominal_voltage 120;
};

object triplex_node {
	phases BS;
	power_12 100;
	name 79;
	parent 134;
	nominal_voltage 120;
};

object overhead_line {
	phases ACBN;
	from 510;
	name 529;
	to 1709;
	length 362.275;
	configuration 528;
};

object overhead_line {
	phases ACBN;
	from 1709;
	name 5;
	to 485;
	length 403.339;
	configuration 528;
};

object overhead_line {
	phases ACBN;
	from 485;
	name 135;
	to 1539;
	length 292.192;
	configuration 528;
};

object overhead_line {
	phases ACBN;
	from 1539;
	name 1143;
	to 929;
	length 375.845;
	configuration 528;
};

object overhead_line {
	phases ACBN;
	from 929;
	name 1463;
	to 880;
	length 306.614;
	configuration 528;
};

object overhead_line {
	phases ACBN;
	from 880;
	name 985;
	to 1531;
	length 317.537;
	configuration 528;
};

object overhead_line {
	phases ACBN;
	from 1531;
	name 1228;
	to 810;
	length 286.057;
	configuration 528;
};

object overhead_line {
	phases ACBN;
	from 810;
	name 472;
	to 1355;
	length 13.0603;
	configuration 162;
};

object fuse {
	phases ACBN;
	from 1355;
	name 325;
	current_limit 9999.0 A;
	to 1433;
};

object overhead_line {
	phases ACBN;
	from 1433;
	name 598;
	to 533;
	length 106.95;
	configuration 162;
};

object transformer {
	phases AS;
	from 533;
	name 1262;
	to 796;
	configuration 752;
};

object triplex_node {
	phases AS;
	power_12 32759.0;
	name 967;
	parent 796;
	nominal_voltage 120;
};

object overhead_line {
	phases ACBN;
	from 533;
	name 577;
	to 884;
	length 29.3356;
	configuration 162;
};

object switch {
	status CLOSED;
	phases ACBN;
	from 884;
	name 1304;
	to 938;
};

object switch {
	status CLOSED;
	phases ACBN;
	from 938;
	name 337;
	to 1524;
};

object overhead_line {
	phases ACB;
	from 1524;
	name 1403;
	to 468;
	length 15.0633;
	configuration 162;
};

object underground_line {
	phases ACB;
	from 468;
	name 1302;
	to 1334;
	length 28.9999;
	configuration 1118;
};

object fuse {
	phases ACB;
	from 1334;
	name 272;
	current_limit 9999.0 A;
	to 905;
};

object overhead_line {
	phases ACBN;
	from 810;
	name 1579;
	to 811;
	length 470.042;
	configuration 528;
};

object overhead_line {
	phases ACBN;
	from 811;
	name 1575;
	to 599;
	length 436.471;
	configuration 528;
};

object overhead_line {
	phases ACBN;
	from 599;
	name 245;
	to 1380;
	length 368.458;
	configuration 528;
};

object overhead_line {
	phases ACBN;
	from 1380;
	name 1600;
	to 1689;
	length 341.358;
	configuration 528;
};

object overhead_line {
	phases ACBN;
	from 1689;
	name 1319;
	to 4;
	length 359.974;
	configuration 528;
};

object overhead_line {
	phases BN;
	from 510;
	name 184;
	to 1414;
	length 25;
	configuration 34;
};

object fuse {
	phases BN;
	from 1414;
	name 458;
	current_limit 9999.0 A;
	to 1451;
};

object overhead_line {
	phases BN;
	from 1451;
	name 757;
	to 739;
	length 121.877;
	configuration 34;
};

object overhead_line {
	phases BN;
	from 739;
	name 59;
	to 1661;
	length 197.367;
	configuration 34;
};

object overhead_line {
	phases BN;
	from 1661;
	name 501;
	to 345;
	length 255;
	configuration 34;
};

object overhead_line {
	phases BN;
	from 345;
	name 1640;
	to 400;
	length 255;
	configuration 34;
};

object overhead_line {
	phases BN;
	from 400;
	name 1498;
	to 932;
	length 360;
	configuration 34;
};

object line_configuration {
	name 34;
	spacing 116;
	conductor_N 680;
	conductor_A 791;
	conductor_C 791;
	conductor_B 680;
};

object overhead_line {
	phases BN;
	from 1661;
	name 562;
	to 766;
	length 268.71;
	configuration 34;
};

object transformer {
	phases BS;
	from 766;
	name 1274;
	to 980;
	configuration 752;
};

object triplex_node {
	phases BS;
	power_12 100;
	name 682;
	parent 980;
	nominal_voltage 120;
};

object overhead_line {
	phases BN;
	from 766;
	name 90;
	to 1363;
	length 304.822;
	configuration 34;
};

object transformer {
	phases BS;
	from 1363;
	name 776;
	to 1198;
	configuration 752;
};

object triplex_node {
	phases BS;
	power_12 100;
	name 664;
	parent 1198;
	nominal_voltage 120;
};

object overhead_line {
	phases BN;
	from 766;
	name 132;
	to 1431;
	length 220.523;
	configuration 34;
};

object transformer {
	phases BS;
	from 1431;
	name 42;
	to 1366;
	configuration 752;
};

object triplex_node {
	phases BS;
	power_12 100;
	name 481;
	parent 1366;
	nominal_voltage 120;
};

object overhead_line {
	phases B;
	from 1290;
	name 1097;
	to 315;
	length 264.012;
	configuration 34;
};

object underground_line {
	phases B;
	from 315;
	name 210;
	to 492;
	length 25.0002;
	configuration 1118;
};

object fuse {
	phases B;
	from 492;
	name 987;
	current_limit 9999.0 A;
	to 1525;
};

object underground_line {
	phases B;
	from 1525;
	name 702;
	to 689;
	length 110.041;
	configuration 1118;
};

object transformer {
	phases BS;
	from 689;
	name 821;
	to 1279;
	configuration 752;
};

object triplex_node {
	phases BS;
	power_12 100;
	name 1580;
	parent 1279;
	nominal_voltage 120;
};

object overhead_line {
	phases CN;
	from 857;
	name 22;
	to 1120;
	length 25.0001;
	configuration 1699;
};

object fuse {
	phases CN;
	from 1120;
	name 393;
	current_limit 9999.0 A;
	to 858;
};

object overhead_line {
	phases CN;
	from 858;
	name 643;
	to 1336;
	length 131.009;
	configuration 1699;
};

object transformer {
	phases CS;
	from 1336;
	name 1244;
	to 252;
	configuration 752;
};

object triplex_node {
	phases CS;
	power_12 4264.42;
	name 1587;
	parent 252;
	nominal_voltage 120;
};

object triplex_node {
	phases CS;
	power_12 158.97;
	name 1646;
	parent 252;
	nominal_voltage 120;
};

object overhead_line {
	phases CN;
	from 1336;
	name 1018;
	to 1486;
	length 240.841;
	configuration 1699;
};

object overhead_line {
	phases CN;
	from 1486;
	name 1708;
	to 710;
	length 269.281;
	configuration 1699;
};

object transformer {
	phases CS;
	from 710;
	name 422;
	to 1246;
	configuration 752;
};

object triplex_node {
	phases CS;
	power_12 4385.54;
	name 1504;
	parent 1246;
	nominal_voltage 120;
};

object overhead_line {
	phases CN;
	from 710;
	name 1489;
	to 1232;
	length 152.053;
	configuration 1699;
};

object underground_line {
	phases CN;
...